34
Properties=species:S:1:pos:R:3 pbc="F F F"
Pd       2.79096074       2.55819215      -1.80395656
Pd       2.79096074       4.53672515       0.17457644
Pd       4.76949374       2.55819215       0.17457644
Pd       4.76949374       4.53672515      -1.80395656
H        2.79096074       4.53672515      -1.80395656
H        3.78022724       5.52599165      -0.81469006
H        2.79096074       2.55819215       0.17457644
Pd       6.74802674       2.55819215      -1.80395656
Pd       2.79096074       6.51525815      -1.80395656
Pd       2.79096074       2.55819215       2.15310944
Pd       6.74802674       6.51525815       2.15310944
Pd       6.74802674       6.51525815      -1.80395656
Pd       6.74802674       2.55819215       2.15310944
Pd       2.79096074       6.51525815       2.15310944
Pd       6.74802674       4.53672515       0.17457644
Pd       4.76949374       6.51525815       0.17457644
Pd       4.76949374       4.53672515       2.15310944
Pd      11.68983459       2.38361571      -1.86214871
Pd      11.68983459       4.36214871       0.11638429
Pd      13.66836759       2.38361571       0.11638429
Pd      13.66836759       4.36214871      -1.86214871
H       11.68983459       4.36214871      -1.86214871
H       12.67910109       5.35141521      -0.87288221
H       12.67910109       5.35141521       1.10565079
Pd      15.64690059       2.38361571      -1.86214871
Pd      11.68983459       6.34068171      -1.86214871
Pd      11.68983459       2.38361571       2.09491729
Pd      15.64690059       6.34068171       2.09491729
Pd      15.64690059       6.34068171      -1.86214871
Pd      15.64690059       2.38361571       2.09491729
Pd      11.68983459       6.34068171       2.09491729
Pd      15.64690059       4.36214871       0.11638429
Pd      13.66836759       6.34068171       0.11638429
Pd      13.66836759       4.36214871       2.09491729
